
 OpenBabel08252315103D

 33 36  0  0  0  0  0  0  0  0999 V2000
  -50.0030    1.1220  -18.2050 C   0  0  0  0  0  0  0  0  0  0  0  0
  -49.1940    0.4870  -19.1430 C   0  0  0  0  0  0  0  0  0  0  0  0
  -49.6610    0.3780  -20.4550 C   0  0  0  0  0  3  0  0  0  0  0  0
  -50.8930    0.9610  -20.8560 C   0  0  0  0  0  0  0  0  0  0  0  0
  -51.6450    1.6750  -19.9140 C   0  0  0  0  0  0  0  0  0  0  0  0
  -51.1940    1.7370  -18.6050 C   0  0  0  0  0  2  0  0  0  0  0  0
  -52.7840    2.2990  -20.2140 N   0  0  0  0  0  0  0  0  0  0  0  0
  -53.1980    2.2130  -21.4810 C   0  0  0  0  0  2  0  0  0  0  0  0
  -52.5810    1.5530  -22.4640 N   0  0  0  0  0  0  0  0  0  0  0  0
  -51.4430    0.9060  -22.1530 C   0  0  0  0  0  0  0  0  0  0  0  0
  -50.7900    0.1540  -23.1560 N   0  0  0  0  0  0  0  0  0  0  0  0
  -50.4710   -0.7430  -22.8120 H   0  0  0  0  0  0  0  0  0  0  0  0
  -50.9120    0.2190  -24.5570 C   0  0  0  0  0  0  0  0  0  0  0  0
  -50.8410    1.4700  -25.1910 C   0  0  0  0  0  3  0  0  0  0  0  0
  -50.9660    1.5760  -26.5800 C   0  0  0  0  0  0  0  0  0  0  0  0
  -51.1770    0.4370  -27.3480 C   0  0  0  0  0  0  0  0  0  0  0  0
  -51.2690   -0.8090  -26.7410 C   0  0  0  0  0  3  0  0  0  0  0  0
  -51.1410   -0.9130  -25.3520 C   0  0  0  0  0  3  0  0  0  0  0  0
  -51.3030    0.5180  -28.6800 F   0  0  0  0  0  0  0  0  0  0  0  0
  -50.8570    3.1280  -27.3190 Cl  0  0  0  0  0  0  0  0  0  0  0  0
  -50.6730    1.9140  -16.1630 C   0  0  0  0  0  1  0  0  0  0  0  0
  -49.6530    1.2080  -16.8830 O   0  0  0  0  0  0  0  0  0  0  0  0
  -47.9700   -0.0830  -18.9310 O   0  0  0  0  0  0  0  0  0  0  0  0
  -47.7700   -1.4380  -19.3480 C   0  0  0  0  0  2  0  0  0  0  0  0
  -47.3500   -2.3420  -18.1890 C   0  0  0  0  0  2  0  0  0  0  0  0
  -48.4080   -2.5240  -17.1070 C   0  0  0  0  0  2  0  0  0  0  0  0
  -48.4040   -1.5010  -15.9950 N   0  0  0  0  0  4  0  0  0  0  0  0
  -49.1880   -1.8840  -14.7400 C   0  0  0  0  0  2  0  0  0  0  0  0
  -49.2800   -0.6650  -13.8140 C   0  0  0  0  0  2  0  0  0  0  0  0
  -47.9770   -0.1720  -13.4790 O   0  0  0  0  0  0  0  0  0  0  0  0
  -47.2350    0.2290  -14.6360 C   0  0  0  0  0  2  0  0  0  0  0  0
  -47.0410   -0.9490  -15.6020 C   0  0  0  0  0  2  0  0  0  0  0  0
  -48.9090   -0.6970  -16.3910 H   0  0  0  0  0  0  0  0  0  0  0  0
  1 22  1  0  0  0  0
  2 23  1  0  0  0  0
  2  1  2  0  0  0  0
  3  2  1  0  0  0  0
  4  3  2  0  0  0  0
  4  5  1  0  0  0  0
  5  6  1  0  0  0  0
  6  1  1  0  0  0  0
  7  5  2  0  0  0  0
  8  7  1  0  0  0  0
  9 10  2  0  0  0  0
  9  8  1  0  0  0  0
 10  4  1  0  0  0  0
 11 12  1  0  0  0  0
 11 10  1  0  0  0  0
 13 11  1  0  0  0  0
 14 13  1  0  0  0  0
 15 14  2  0  0  0  0
 16 17  2  0  0  0  0
 16 15  1  0  0  0  0
 17 18  1  0  0  0  0
 18 13  2  0  0  0  0
 19 16  1  0  0  0  0
 20 15  1  0  0  0  0
 22 21  1  0  0  0  0
 24 23  1  0  0  0  0
 24 25  1  0  0  0  0
 25 26  1  0  0  0  0
 26 27  1  0  0  0  0
 27 32  1  0  0  0  0
 27 28  1  0  0  0  0
 28 29  1  0  0  0  0
 29 30  1  0  0  0  0
 31 30  1  0  0  0  0
 32 31  1  0  0  0  0
 33 27  1  0  0  0  0
M  END
>  <minimizedAffinity>
-8.29964638

$$$$
