
 OpenBabel08252315103D

 33 36  0  0  0  0  0  0  0  0999 V2000
  -50.0800    1.1760  -18.1620 C   0  0  0  0  0  0  0  0  0  0  0  0
  -49.2870    0.4970  -19.0840 C   0  0  0  0  0  0  0  0  0  0  0  0
  -49.7490    0.3810  -20.3970 C   0  0  0  0  0  3  0  0  0  0  0  0
  -50.9570    1.0000  -20.8170 C   0  0  0  0  0  0  0  0  0  0  0  0
  -51.6900    1.7560  -19.8920 C   0  0  0  0  0  0  0  0  0  0  0  0
  -51.2460    1.8240  -18.5820 C   0  0  0  0  0  2  0  0  0  0  0  0
  -52.8060    2.4130  -20.2110 N   0  0  0  0  0  0  0  0  0  0  0  0
  -53.2140    2.3190  -21.4800 C   0  0  0  0  0  2  0  0  0  0  0  0
  -52.6130    1.6210  -22.4460 N   0  0  0  0  0  0  0  0  0  0  0  0
  -51.5010    0.9420  -22.1170 C   0  0  0  0  0  0  0  0  0  0  0  0
  -50.8680    0.1500  -23.1020 N   0  0  0  0  0  0  0  0  0  0  0  0
  -50.5820   -0.7520  -22.7410 H   0  0  0  0  0  0  0  0  0  0  0  0
  -50.9780    0.1950  -24.5050 C   0  0  0  0  0  0  0  0  0  0  0  0
  -50.8550    1.4310  -25.1600 C   0  0  0  0  0  3  0  0  0  0  0  0
  -50.9670    1.5180  -26.5510 C   0  0  0  0  0  0  0  0  0  0  0  0
  -51.2160    0.3740  -27.3010 C   0  0  0  0  0  0  0  0  0  0  0  0
  -51.3600   -0.8560  -26.6730 C   0  0  0  0  0  3  0  0  0  0  0  0
  -51.2440   -0.9420  -25.2820 C   0  0  0  0  0  3  0  0  0  0  0  0
  -51.3300    0.4360  -28.6350 F   0  0  0  0  0  0  0  0  0  0  0  0
  -50.7940    3.0510  -27.3160 Cl  0  0  0  0  0  0  0  0  0  0  0  0
  -50.7330    2.0300  -16.1400 C   0  0  0  0  0  1  0  0  0  0  0  0
  -49.7360    1.2730  -16.8400 O   0  0  0  0  0  0  0  0  0  0  0  0
  -48.0850   -0.1110  -18.8540 O   0  0  0  0  0  0  0  0  0  0  0  0
  -48.0850   -1.4820  -18.4440 C   0  0  0  0  0  2  0  0  0  0  0  0
  -47.2960   -2.3710  -19.4050 C   0  0  0  0  0  2  0  0  0  0  0  0
  -48.0670   -2.8140  -20.6430 C   0  0  0  0  0  2  0  0  0  0  0  0
  -47.5130   -2.3550  -21.9700 N   0  0  0  0  0  4  0  0  0  0  0  0
  -46.0710   -2.7690  -22.2640 C   0  0  0  0  0  2  0  0  0  0  0  0
  -45.5850   -2.0400  -23.5240 C   0  0  0  0  0  2  0  0  0  0  0  0
  -46.4390   -2.3160  -24.6400 O   0  0  0  0  0  0  0  0  0  0  0  0
  -47.7900   -1.9030  -24.4050 C   0  0  0  0  0  2  0  0  0  0  0  0
  -48.3840   -2.6280  -23.1890 C   0  0  0  0  0  2  0  0  0  0  0  0
  -47.4850   -1.3300  -21.8910 H   0  0  0  0  0  0  0  0  0  0  0  0
  1 22  1  0  0  0  0
  2 23  1  0  0  0  0
  2  1  2  0  0  0  0
  3  2  1  0  0  0  0
  4  3  2  0  0  0  0
  4  5  1  0  0  0  0
  5  6  1  0  0  0  0
  6  1  1  0  0  0  0
  7  5  2  0  0  0  0
  8  7  1  0  0  0  0
  9 10  2  0  0  0  0
  9  8  1  0  0  0  0
 10  4  1  0  0  0  0
 11 12  1  0  0  0  0
 11 10  1  0  0  0  0
 13 11  1  0  0  0  0
 14 13  1  0  0  0  0
 15 14  2  0  0  0  0
 16 17  2  0  0  0  0
 16 15  1  0  0  0  0
 17 18  1  0  0  0  0
 18 13  2  0  0  0  0
 19 16  1  0  0  0  0
 20 15  1  0  0  0  0
 22 21  1  0  0  0  0
 23 24  1  0  0  0  0
 25 24  1  0  0  0  0
 26 25  1  0  0  0  0
 27 33  1  0  0  0  0
 27 26  1  0  0  0  0
 28 27  1  0  0  0  0
 29 28  1  0  0  0  0
 30 31  1  0  0  0  0
 30 29  1  0  0  0  0
 31 32  1  0  0  0  0
 32 27  1  0  0  0  0
M  END
>  <minimizedAffinity>
-8.45267773

$$$$
