
 OpenBabel08252315103D

 33 36  0  0  0  0  0  0  0  0999 V2000
  -49.5460    0.9840  -17.6810 C   0  0  0  0  0  0  0  0  0  0  0  0
  -48.7310    0.5010  -18.7010 C   0  0  0  0  0  0  0  0  0  0  0  0
  -49.2260    0.5120  -20.0070 C   0  0  0  0  0  3  0  0  0  0  0  0
  -50.4970    1.0690  -20.3150 C   0  0  0  0  0  0  0  0  0  0  0  0
  -51.2590    1.6330  -19.2840 C   0  0  0  0  0  0  0  0  0  0  0  0
  -50.7770    1.5740  -17.9860 C   0  0  0  0  0  2  0  0  0  0  0  0
  -52.4370    2.2230  -19.4890 N   0  0  0  0  0  0  0  0  0  0  0  0
  -52.8790    2.2540  -20.7490 C   0  0  0  0  0  2  0  0  0  0  0  0
  -52.2550    1.7410  -21.8110 N   0  0  0  0  0  0  0  0  0  0  0  0
  -51.0780    1.1270  -21.5980 C   0  0  0  0  0  0  0  0  0  0  0  0
  -50.4140    0.5260  -22.6910 N   0  0  0  0  0  0  0  0  0  0  0  0
  -50.0400   -0.3850  -22.4570 H   0  0  0  0  0  0  0  0  0  0  0  0
  -50.5760    0.7380  -24.0740 C   0  0  0  0  0  0  0  0  0  0  0  0
  -50.9470   -0.3410  -24.8920 C   0  0  0  0  0  3  0  0  0  0  0  0
  -51.1080   -0.1720  -26.2700 C   0  0  0  0  0  0  0  0  0  0  0  0
  -50.8880    1.0730  -26.8490 C   0  0  0  0  0  0  0  0  0  0  0  0
  -50.5020    2.1510  -26.0620 C   0  0  0  0  0  3  0  0  0  0  0  0
  -50.3440    1.9810  -24.6830 C   0  0  0  0  0  3  0  0  0  0  0  0
  -51.0340    1.2560  -28.1680 F   0  0  0  0  0  0  0  0  0  0  0  0
  -51.5800   -1.5180  -27.2340 Cl  0  0  0  0  0  0  0  0  0  0  0  0
  -50.1540    1.6040  -15.5610 C   0  0  0  0  0  1  0  0  0  0  0  0
  -49.1660    0.9440  -16.3660 O   0  0  0  0  0  0  0  0  0  0  0  0
  -47.4740   -0.0210  -18.5790 O   0  0  0  0  0  0  0  0  0  0  0  0
  -47.3300   -1.3100  -17.9720 C   0  0  0  0  0  2  0  0  0  0  0  0
  -47.8990   -2.4260  -18.8480 C   0  0  0  0  0  2  0  0  0  0  0  0
  -46.8530   -3.2510  -19.5890 C   0  0  0  0  0  2  0  0  0  0  0  0
  -46.9660   -3.2680  -21.0950 N   0  0  0  0  0  4  0  0  0  0  0  0
  -47.3170   -1.9310  -21.7480 C   0  0  0  0  0  2  0  0  0  0  0  0
  -47.6210   -2.1610  -23.2340 C   0  0  0  0  0  2  0  0  0  0  0  0
  -46.5130   -2.7840  -23.8960 O   0  0  0  0  0  0  0  0  0  0  0  0
  -46.1870   -4.0570  -23.3270 C   0  0  0  0  0  2  0  0  0  0  0  0
  -45.8110   -3.9180  -21.8450 C   0  0  0  0  0  2  0  0  0  0  0  0
  -47.7750   -3.8770  -21.2810 H   0  0  0  0  0  0  0  0  0  0  0  0
  1 22  1  0  0  0  0
  2 23  1  0  0  0  0
  2  1  2  0  0  0  0
  3  2  1  0  0  0  0
  4  3  2  0  0  0  0
  4  5  1  0  0  0  0
  5  6  1  0  0  0  0
  6  1  1  0  0  0  0
  7  5  2  0  0  0  0
  8  7  1  0  0  0  0
  9 10  2  0  0  0  0
  9  8  1  0  0  0  0
 10  4  1  0  0  0  0
 11 12  1  0  0  0  0
 11 10  1  0  0  0  0
 13 11  1  0  0  0  0
 14 13  2  0  0  0  0
 15 14  1  0  0  0  0
 16 15  2  0  0  0  0
 16 17  1  0  0  0  0
 17 18  2  0  0  0  0
 18 13  1  0  0  0  0
 19 16  1  0  0  0  0
 20 15  1  0  0  0  0
 22 21  1  0  0  0  0
 23 24  1  0  0  0  0
 25 24  1  0  0  0  0
 26 25  1  0  0  0  0
 27 26  1  0  0  0  0
 28 27  1  0  0  0  0
 29 28  1  0  0  0  0
 30 31  1  0  0  0  0
 30 29  1  0  0  0  0
 31 32  1  0  0  0  0
 32 27  1  0  0  0  0
 33 27  1  0  0  0  0
M  END
>  <minimizedAffinity>
-8.12747574

$$$$
