
 OpenBabel08252315103D

 33 36  0  0  0  0  0  0  0  0999 V2000
  -46.3970   -4.0130  -20.4170 C   0  0  0  0  0  0  0  0  0  0  0  0
  -47.5760   -3.2980  -20.2280 C   0  0  0  0  0  0  0  0  0  0  0  0
  -48.0770   -2.5520  -21.2970 C   0  0  0  0  0  3  0  0  0  0  0  0
  -47.4540   -2.5720  -22.5740 C   0  0  0  0  0  0  0  0  0  0  0  0
  -46.3200   -3.3730  -22.7640 C   0  0  0  0  0  0  0  0  0  0  0  0
  -45.8060   -4.0720  -21.6840 C   0  0  0  0  0  2  0  0  0  0  0  0
  -45.7030   -3.4940  -23.9390 N   0  0  0  0  0  0  0  0  0  0  0  0
  -46.2170   -2.7990  -24.9590 C   0  0  0  0  0  2  0  0  0  0  0  0
  -47.2790   -1.9930  -24.9020 N   0  0  0  0  0  0  0  0  0  0  0  0
  -47.8860   -1.8570  -23.7100 C   0  0  0  0  0  0  0  0  0  0  0  0
  -48.9820   -0.9720  -23.6000 N   0  0  0  0  0  0  0  0  0  0  0  0
  -48.9350   -0.4080  -22.7600 H   0  0  0  0  0  0  0  0  0  0  0  0
  -49.8140   -0.4350  -24.6020 C   0  0  0  0  0  0  0  0  0  0  0  0
  -49.8270    0.9540  -24.8060 C   0  0  0  0  0  3  0  0  0  0  0  0
  -50.6470    1.5250  -25.7850 C   0  0  0  0  0  0  0  0  0  0  0  0
  -51.4710    0.7170  -26.5600 C   0  0  0  0  0  0  0  0  0  0  0  0
  -51.4880   -0.6570  -26.3620 C   0  0  0  0  0  3  0  0  0  0  0  0
  -50.6660   -1.2270  -25.3850 C   0  0  0  0  0  3  0  0  0  0  0  0
  -52.2660    1.2450  -27.5010 F   0  0  0  0  0  0  0  0  0  0  0  0
  -50.6210    3.2320  -26.0130 Cl  0  0  0  0  0  0  0  0  0  0  0  0
  -45.6420   -6.0830  -19.7910 C   0  0  0  0  0  1  0  0  0  0  0  0
  -45.8000   -4.7120  -19.4010 O   0  0  0  0  0  0  0  0  0  0  0  0
  -48.3180   -3.2120  -19.0830 O   0  0  0  0  0  0  0  0  0  0  0  0
  -49.6110   -2.6020  -19.1570 C   0  0  0  0  0  2  0  0  0  0  0  0
  -49.7230   -1.3770  -18.2490 C   0  0  0  0  0  2  0  0  0  0  0  0
  -49.1620   -0.0900  -18.8430 C   0  0  0  0  0  2  0  0  0  0  0  0
  -50.1610    0.8240  -19.5110 N   0  0  0  0  0  4  0  0  0  0  0  0
  -50.7660    0.3040  -20.8150 C   0  0  0  0  0  2  0  0  0  0  0  0
  -51.5710    1.4290  -21.4790 C   0  0  0  0  0  2  0  0  0  0  0  0
  -52.5880    1.9240  -20.6000 O   0  0  0  0  0  0  0  0  0  0  0  0
  -52.0450    2.4510  -19.3850 C   0  0  0  0  0  2  0  0  0  0  0  0
  -51.2640    1.3750  -18.6170 C   0  0  0  0  0  2  0  0  0  0  0  0
  -49.6080    1.6480  -19.7820 H   0  0  0  0  0  0  0  0  0  0  0  0
  1  2  2  0  0  0  0
  1 22  1  0  0  0  0
  2 23  1  0  0  0  0
  3  2  1  0  0  0  0
  4  3  2  0  0  0  0
  5  4  1  0  0  0  0
  5  6  1  0  0  0  0
  6  1  1  0  0  0  0
  7  5  2  0  0  0  0
  8  9  1  0  0  0  0
  8  7  1  0  0  0  0
  9 10  2  0  0  0  0
 10 11  1  0  0  0  0
 10  4  1  0  0  0  0
 11 12  1  0  0  0  0
 13 11  1  0  0  0  0
 14 13  1  0  0  0  0
 15 14  2  0  0  0  0
 16 17  2  0  0  0  0
 16 15  1  0  0  0  0
 17 18  1  0  0  0  0
 18 13  2  0  0  0  0
 19 16  1  0  0  0  0
 20 15  1  0  0  0  0
 21 22  1  0  0  0  0
 24 23  1  0  0  0  0
 24 25  1  0  0  0  0
 26 25  1  0  0  0  0
 27 26  1  0  0  0  0
 27 32  1  0  0  0  0
 28 27  1  0  0  0  0
 29 28  1  0  0  0  0
 29 30  1  0  0  0  0
 30 31  1  0  0  0  0
 31 32  1  0  0  0  0
 33 27  1  0  0  0  0
M  END
>  <minimizedAffinity>
-7.30790329

$$$$
