REMARK  Name = 
REMARK  8 active torsions:
REMARK  status: ('A' for Active; 'I' for Inactive)
REMARK    1  A    between atoms: C_1  and  O_2
REMARK    2  A    between atoms: O_2  and  C_3
REMARK    3  A    between atoms: C_4  and  O_22
REMARK    4  A    between atoms: N_13  and  C_14
REMARK    5  A    between atoms: O_22  and  C_23
REMARK    6  A    between atoms: C_23  and  C_24
REMARK    7  A    between atoms: C_24  and  C_25
REMARK    8  A    between atoms: C_25  and  N_26
REMARK                            x       y       z     vdW  Elec       q    Type
REMARK                         _______ _______ _______ _____ _____    ______ ____
ROOT
ATOM      1  C   UNL     1       2.362  -3.317   0.269  0.00  0.00    +0.164 A 
ATOM      2  C   UNL     1       2.859  -2.929  -0.972  0.00  0.00    +0.163 A 
ATOM      3  C   UNL     1       3.236  -3.925  -1.876  0.00  0.00    +0.062 A 
ATOM      4  C   UNL     1       3.052  -5.303  -1.582  0.00  0.00    +0.044 A 
ATOM      5  C   UNL     1       2.464  -5.665  -0.363  0.00  0.00    +0.080 A 
ATOM      6  C   UNL     1       2.137  -4.670   0.544  0.00  0.00    +0.078 A 
ATOM      7  N   UNL     1       2.206  -6.929  -0.027  0.00  0.00    -0.235 NA
ATOM      8  C   UNL     1       2.542  -7.866  -0.918  0.00  0.00    +0.223 A 
ATOM      9  N   UNL     1       3.119  -7.650  -2.102  0.00  0.00    -0.220 NA
ATOM     10  C   UNL     1       3.398  -6.376  -2.429  0.00  0.00    +0.134 A 
ATOM     11  N   UNL     1       4.056  -6.114  -3.652  0.00  0.00    -0.299 N 
ATOM     12  H   UNL     1       4.791  -5.425  -3.550  0.00  0.00    +0.154 HD
ENDROOT
BRANCH  11  13
ATOM     13  C   UNL     1       4.184  -6.920  -4.800  0.00  0.00    +0.034 A 
ATOM     14  C   UNL     1       5.243  -6.678  -5.689  0.00  0.00    +0.046 A 
ATOM     15  C   UNL     1       5.398  -7.451  -6.844  0.00  0.00    +0.078 A 
ATOM     16  C   UNL     1       4.490  -8.464  -7.130  0.00  0.00    +0.142 A 
ATOM     17  C   UNL     1       3.424  -8.709  -6.274  0.00  0.00    +0.041 A 
ATOM     18  C   UNL     1       3.272  -7.937  -5.118  0.00  0.00    +0.026 A 
ATOM     19  F   UNL     1       4.619  -9.214  -8.233  0.00  0.00    -0.204 F 
ATOM     20 CL   UNL     1       6.720  -7.131  -7.900  0.00  0.00    -0.081 Cl
ENDBRANCH  11  13
BRANCH   1  22
ATOM     21  C   UNL     1       3.099  -2.330   2.200  0.00  0.00    +0.277 C 
ATOM     22  O   UNL     1       2.037  -2.406   1.239  0.00  0.00    -0.491 OA
ENDBRANCH   1  22
BRANCH   2  23
ATOM     23  O   UNL     1       3.053  -1.654  -1.425  0.00  0.00    -0.488 OA
BRANCH  23  24
ATOM     24  C   UNL     1       2.116  -0.645  -1.035  0.00  0.00    +0.234 C 
BRANCH  24  25
ATOM     25  C   UNL     1       0.709  -0.931  -1.560  0.00  0.00    +0.092 C 
BRANCH  25  26
ATOM     26  C   UNL     1      -0.339   0.107  -1.174  0.00  0.00    +0.134 C 
BRANCH  26  27
ATOM     27  N   UNL     1      -0.992  -0.079   0.175  0.00  0.00    +0.239 N 
ATOM     28  C   UNL     1      -1.531  -1.480   0.462  0.00  0.00    +0.160 C 
ATOM     29  C   UNL     1      -2.358  -1.446   1.754  0.00  0.00    +0.210 C 
ATOM     30  O   UNL     1      -1.579  -0.957   2.852  0.00  0.00    -0.369 OA
ATOM     31  C   UNL     1      -1.092   0.370   2.624  0.00  0.00    +0.210 C 
ATOM     32  C   UNL     1      -0.201   0.423   1.375  0.00  0.00    +0.160 C 
ATOM     33  H   UNL     1      -1.824   0.525   0.138  0.00  0.00    +0.203 HD
ENDBRANCH  26  27
ENDBRANCH  25  26
ENDBRANCH  24  25
ENDBRANCH  23  24
ENDBRANCH   2  23
TORSDOF 7
